Data/networks/opendssNetworks/network_5/Feeder_3/Loads - Copy.txt
New Load.LOAD1 Phases=1 Bus1=69.2 kV=0.23 kW=1 PF=0.95
New Load.LOAD2 Phases=1 Bus1=75.1 kV=0.23 kW=1 PF=0.95
New Load.LOAD3 Phases=1 Bus1=87.2 kV=0.23 kW=1 PF=0.95
New Load.LOAD4 Phases=1 Bus1=91.1 kV=0.23 kW=1 PF=0.95
New Load.LOAD5 Phases=1 Bus1=119.1 kV=0.23 kW=1 PF=0.95
New Load.LOAD6 Phases=1 Bus1=151.1 kV=0.23 kW=1 PF=0.95
New Load.LOAD7 Phases=1 Bus1=194.1 kV=0.23 kW=1 PF=0.95
New Load.LOAD8 Phases=1 Bus1=211.3 kV=0.23 kW=1 PF=0.95
New Load.LOAD9 Phases=1 Bus1=226.2 kV=0.23 kW=1 PF=0.95
New Load.LOAD10 Phases=1 Bus1=251.3 kV=0.23 kW=1 PF=0.95
New Load.LOAD11 Phases=1 Bus1=265.3 kV=0.23 kW=1 PF=0.95
New Load.LOAD12 Phases=1 Bus1=273.2 kV=0.23 kW=1 PF=0.95
New Load.LOAD13 Phases=1 Bus1=319.2 kV=0.23 kW=1 PF=0.95
New Load.LOAD14 Phases=1 Bus1=326.1 kV=0.23 kW=1 PF=0.95
New Load.LOAD15 Phases=1 Bus1=356.2 kV=0.23 kW=1 PF=0.95
New Load.LOAD16 Phases=1 Bus1=361.1 kV=0.23 kW=1 PF=0.95
New Load.LOAD17 Phases=1 Bus1=370.2 kV=0.23 kW=1 PF=0.95
New Load.LOAD18 Phases=1 Bus1=390.3 kV=0.23 kW=1 PF=0.95
New Load.LOAD19 Phases=1 Bus1=395.3 kV=0.23 kW=1 PF=0.95
New Load.LOAD20 Phases=1 Bus1=410.3 kV=0.23 kW=1 PF=0.95
New Load.LOAD21 Phases=1 Bus1=434.2 kV=0.23 kW=1 PF=0.95
New Load.LOAD22 Phases=1 Bus1=438.3 kV=0.23 kW=1 PF=0.95
New Load.LOAD23 Phases=1 Bus1=455.1 kV=0.23 kW=1 PF=0.95
New Load.LOAD24 Phases=1 Bus1=502.3 kV=0.23 kW=1 PF=0.95
New Load.LOAD25 Phases=1 Bus1=511.2 kV=0.23 kW=1 PF=0.95
New Load.LOAD26 Phases=1 Bus1=531.2 kV=0.23 kW=1 PF=0.95
New Load.LOAD27 Phases=1 Bus1=553.1 kV=0.23 kW=1 PF=0.95
New Load.LOAD28 Phases=1 Bus1=555.3 kV=0.23 kW=1 PF=0.95
New Load.LOAD29 Phases=1 Bus1=571.3 kV=0.23 kW=1 PF=0.95
New Load.LOAD30 Phases=1 Bus1=579.3 kV=0.23 kW=1 PF=0.95
New Load.LOAD31 Phases=1 Bus1=581.1 kV=0.23 kW=1 PF=0.95
New Load.LOAD32 Phases=1 Bus1=622.3 kV=0.23 kW=1 PF=0.95
New Load.LOAD33 Phases=1 Bus1=692.1 kV=0.23 kW=1 PF=0.95
New Load.LOAD34 Phases=1 Bus1=694.2 kV=0.23 kW=1 PF=0.95
New Load.LOAD35 Phases=1 Bus1=722.2 kV=0.23 kW=1 PF=0.95
New Load.LOAD36 Phases=1 Bus1=749.3 kV=0.23 kW=1 PF=0.95
New Load.LOAD37 Phases=1 Bus1=773.2 kV=0.23 kW=1 PF=0.95
New Load.LOAD38 Phases=1 Bus1=778.1 kV=0.23 kW=1 PF=0.95
New Load.LOAD39 Phases=1 Bus1=780.3 kV=0.23 kW=1 PF=0.95
New Load.LOAD40 Phases=1 Bus1=805.3 kV=0.23 kW=1 PF=0.95
New Load.LOAD41 Phases=1 Bus1=809.2 kV=0.23 kW=1 PF=0.95
New Load.LOAD42 Phases=1 Bus1=842.2 kV=0.23 kW=1 PF=0.95
New Load.LOAD43 Phases=1 Bus1=871.3 kV=0.23 kW=1 PF=0.95
New Load.LOAD44 Phases=1 Bus1=922.1 kV=0.23 kW=1 PF=0.95
New Load.LOAD45 Phases=1 Bus1=943.3 kV=0.23 kW=1 PF=0.95
New Load.LOAD46 Phases=1 Bus1=957.1 kV=0.23 kW=1 PF=0.95
New Load.LOAD47 Phases=1 Bus1=967.1 kV=0.23 kW=1 PF=0.95
New Load.LOAD48 Phases=1 Bus1=977.3 kV=0.23 kW=1 PF=0.95
New Load.LOAD49 Phases=1 Bus1=980.2 kV=0.23 kW=1 PF=0.95
New Load.LOAD50 Phases=1 Bus1=1001.3 kV=0.23 kW=1 PF=0.95
New Load.LOAD51 Phases=1 Bus1=1011.2 kV=0.23 kW=1 PF=0.95
New Load.LOAD52 Phases=1 Bus1=1030.1 kV=0.23 kW=1 PF=0.95
New Load.LOAD53 Phases=1 Bus1=1047.2 kV=0.23 kW=1 PF=0.95
New Load.LOAD54 Phases=1 Bus1=1064.3 kV=0.23 kW=1 PF=0.95
New Load.LOAD55 Phases=1 Bus1=1076.2 kV=0.23 kW=1 PF=0.95
New Load.LOAD56 Phases=1 Bus1=1085.1 kV=0.23 kW=1 PF=0.95
New Load.LOAD57 Phases=1 Bus1=1089.2 kV=0.23 kW=1 PF=0.95
New Load.LOAD58 Phases=1 Bus1=1092.1 kV=0.23 kW=1 PF=0.95
New Load.LOAD59 Phases=1 Bus1=1093.2 kV=0.23 kW=1 PF=0.95
New Load.LOAD60 Phases=1 Bus1=1115.1 kV=0.23 kW=1 PF=0.95
New Load.LOAD61 Phases=1 Bus1=1118.3 kV=0.23 kW=1 PF=0.95
New Load.LOAD62 Phases=1 Bus1=1146.3 kV=0.23 kW=1 PF=0.95
New Load.LOAD63 Phases=1 Bus1=1155.1 kV=0.23 kW=1 PF=0.95
New Load.LOAD64 Phases=1 Bus1=1157.1 kV=0.23 kW=1 PF=0.95
New Load.LOAD65 Phases=1 Bus1=1158.2 kV=0.23 kW=1 PF=0.95
New Load.LOAD66 Phases=1 Bus1=1167.1 kV=0.23 kW=1 PF=0.95
New Load.LOAD67 Phases=1 Bus1=1172.2 kV=0.23 kW=1 PF=0.95
New Load.LOAD68 Phases=1 Bus1=1181.3 kV=0.23 kW=1 PF=0.95
New Load.LOAD69 Phases=1 Bus1=1183.2 kV=0.23 kW=1 PF=0.95
New Load.LOAD70 Phases=1 Bus1=1195.2 kV=0.23 kW=1 PF=0.95
New Load.LOAD71 Phases=1 Bus1=1206.1 kV=0.23 kW=1 PF=0.95
New Load.LOAD72 Phases=1 Bus1=1215.2 kV=0.23 kW=1 PF=0.95
New Load.LOAD73 Phases=1 Bus1=1216.1 kV=0.23 kW=1 PF=0.95
New Load.LOAD74 Phases=1 Bus1=1234.2 kV=0.23 kW=1 PF=0.95
New Load.LOAD75 Phases=1 Bus1=1248.1 kV=0.23 kW=1 PF=0.95
New Load.LOAD76 Phases=1 Bus1=1250.1 kV=0.23 kW=1 PF=0.95
New Load.LOAD77 Phases=1 Bus1=1269.1 kV=0.23 kW=1 PF=0.95
New Load.LOAD78 Phases=1 Bus1=1282.1 kV=0.23 kW=1 PF=0.95
New Load.LOAD79 Phases=1 Bus1=1302.3 kV=0.23 kW=1 PF=0.95
New Load.LOAD80 Phases=1 Bus1=1310.2 kV=0.23 kW=1 PF=0.95
New Load.LOAD81 Phases=1 Bus1=1346.1 kV=0.23 kW=1 PF=0.95
New Load.LOAD82 Phases=1 Bus1=1357.2 kV=0.23 kW=1 PF=0.95
New Load.LOAD83 Phases=1 Bus1=1374.3 kV=0.23 kW=1 PF=0.95
New Load.LOAD84 Phases=1 Bus1=1389.2 kV=0.23 kW=1 PF=0.95
New Load.LOAD85 Phases=1 Bus1=1390.1 kV=0.23 kW=1 PF=0.95
New Load.LOAD86 Phases=1 Bus1=1392.2 kV=0.23 kW=1 PF=0.95
New Load.LOAD87 Phases=1 Bus1=1409.3 kV=0.23 kW=1 PF=0.95
New Load.LOAD88 Phases=1 Bus1=1420.1 kV=0.23 kW=1 PF=0.95
New Load.LOAD89 Phases=1 Bus1=1424.1 kV=0.23 kW=1 PF=0.95
New Load.LOAD90 Phases=1 Bus1=1441.3 kV=0.23 kW=1 PF=0.95
New Load.LOAD91 Phases=1 Bus1=1446.3 kV=0.23 kW=1 PF=0.95
New Load.LOAD92 Phases=1 Bus1=1464.3 kV=0.23 kW=1 PF=0.95
New Load.LOAD93 Phases=1 Bus1=1488.2 kV=0.23 kW=1 PF=0.95
New Load.LOAD94 Phases=1 Bus1=1505.3 kV=0.23 kW=1 PF=0.95
New Load.LOAD95 Phases=1 Bus1=1513.1 kV=0.23 kW=1 PF=0.95
New Load.LOAD96 Phases=1 Bus1=1518.1 kV=0.23 kW=1 PF=0.95
New Load.LOAD97 Phases=1 Bus1=1547.1 kV=0.23 kW=1 PF=0.95
New Load.LOAD98 Phases=1 Bus1=1563.3 kV=0.23 kW=1 PF=0.95
New Load.LOAD99 Phases=1 Bus1=1567.2 kV=0.23 kW=1 PF=0.95
New Load.LOAD100 Phases=1 Bus1=1588.1 kV=0.23 kW=1 PF=0.95
New Load.LOAD101 Phases=1 Bus1=1594.3 kV=0.23 kW=1 PF=0.95
New Load.LOAD102 Phases=1 Bus1=1598.2 kV=0.23 kW=1 PF=0.95
New Load.LOAD103 Phases=1 Bus1=1619.1 kV=0.23 kW=1 PF=0.95
New Load.LOAD104 Phases=1 Bus1=1627.1 kV=0.23 kW=1 PF=0.95
New Load.LOAD105 Phases=1 Bus1=1631.1 kV=0.23 kW=1 PF=0.95
New Load.LOAD106 Phases=1 Bus1=1666.3 kV=0.23 kW=1 PF=0.95
New Load.LOAD107 Phases=1 Bus1=1684.3 kV=0.23 kW=1 PF=0.95
New Load.LOAD108 Phases=1 Bus1=1711.1 kV=0.23 kW=1 PF=0.95
New Load.LOAD109 Phases=1 Bus1=1733.3 kV=0.23 kW=1 PF=0.95
New Load.LOAD110 Phases=1 Bus1=1743.1 kV=0.23 kW=1 PF=0.95
New Load.LOAD111 Phases=1 Bus1=1744.1 kV=0.23 kW=1 PF=0.95
New Load.LOAD112 Phases=1 Bus1=1762.1 kV=0.23 kW=1 PF=0.95
New Load.LOAD113 Phases=1 Bus1=1763.2 kV=0.23 kW=1 PF=0.95
New Load.LOAD114 Phases=1 Bus1=1764.3 kV=0.23 kW=1 PF=0.95
New Load.LOAD115 Phases=1 Bus1=1800.3 kV=0.23 kW=1 PF=0.95
New Load.LOAD116 Phases=1 Bus1=1819.1 kV=0.23 kW=1 PF=0.95
New Load.LOAD117 Phases=1 Bus1=1885.1 kV=0.23 kW=1 PF=0.95
New Load.LOAD118 Phases=1 Bus1=1911.3 kV=0.23 kW=1 PF=0.95
New Load.LOAD119 Phases=1 Bus1=1993.2 kV=0.23 kW=1 PF=0.95
New Load.LOAD120 Phases=1 Bus1=2010.3 kV=0.23 kW=1 PF=0.95
New Load.LOAD121 Phases=1 Bus1=2023.2 kV=0.23 kW=1 PF=0.95
New Load.LOAD122 Phases=1 Bus1=2043.1 kV=0.23 kW=1 PF=0.95
New Load.LOAD123 Phases=1 Bus1=2059.3 kV=0.23 kW=1 PF=0.95
New Load.LOAD124 Phases=1 Bus1=2064.3 kV=0.23 kW=1 PF=0.95
New Load.LOAD125 Phases=1 Bus1=2092.2 kV=0.23 kW=1 PF=0.95
New Load.LOAD126 Phases=1 Bus1=2176.3 kV=0.23 kW=1 PF=0.95
New Load.LOAD127 Phases=1 Bus1=2199.1 kV=0.23 kW=1 PF=0.95
New Load.LOAD128 Phases=1 Bus1=2203.3 kV=0.23 kW=1 PF=0.95
New Load.LOAD129 Phases=1 Bus1=2227.2 kV=0.23 kW=1 PF=0.95
New Load.LOAD130 Phases=1 Bus1=2230.3 kV=0.23 kW=1 PF=0.95
New Load.LOAD131 Phases=1 Bus1=2232.1 kV=0.23 kW=1 PF=0.95
New Load.LOAD132 Phases=1 Bus1=2237.2 kV=0.23 kW=1 PF=0.95
New Load.LOAD133 Phases=1 Bus1=2249.2 kV=0.23 kW=1 PF=0.95
New Load.LOAD134 Phases=1 Bus1=2313.2 kV=0.23 kW=1 PF=0.95
New Load.LOAD135 Phases=1 Bus1=2349.2 kV=0.23 kW=1 PF=0.95
New Load.LOAD136 Phases=1 Bus1=2402.2 kV=0.23 kW=1 PF=0.95
New Load.LOAD137 Phases=1 Bus1=2435.3 kV=0.23 kW=1 PF=0.95
New Load.LOAD138 Phases=1 Bus1=2466.1 kV=0.23 kW=1 PF=0.95
New Load.LOAD139 Phases=1 Bus1=2489.2 kV=0.23 kW=1 PF=0.95
New Load.LOAD140 Phases=1 Bus1=2501.3 kV=0.23 kW=1 PF=0.95
New Load.LOAD141 Phases=1 Bus1=2521.1 kV=0.23 kW=1 PF=0.95
New Load.LOAD142 Phases=1 Bus1=2548.2 kV=0.23 kW=1 PF=0.95
New Load.LOAD143 Phases=1 Bus1=2555.3 kV=0.23 kW=1 PF=0.95
New Load.LOAD144 Phases=1 Bus1=2587.1 kV=0.23 kW=1 PF=0.95
New Load.LOAD145 Phases=1 Bus1=2621.2 kV=0.23 kW=1 PF=0.95
New Load.LOAD146 Phases=1 Bus1=2643.3 kV=0.23 kW=1 PF=0.95
New Load.LOAD147 Phases=1 Bus1=2647.3 kV=0.23 kW=1 PF=0.95
New Load.LOAD148 Phases=1 Bus1=2721.1 kV=0.23 kW=1 PF=0.95
New Load.LOAD149 Phases=1 Bus1=2752.3 kV=0.23 kW=1 PF=0.95
New Load.LOAD150 Phases=1 Bus1=2816.2 kV=0.23 kW=1 PF=0.95
New Load.LOAD151 Phases=1 Bus1=2826.1 kV=0.23 kW=1 PF=0.95
New Load.LOAD152 Phases=1 Bus1=2876.1 kV=0.23 kW=1 PF=0.95
New Load.LOAD153 Phases=1 Bus1=2884.2 kV=0.23 kW=1 PF=0.95
New Load.LOAD154 Phases=1 Bus1=2888.3 kV=0.23 kW=1 PF=0.95
New Load.LOAD155 Phases=1 Bus1=2900.3 kV=0.23 kW=1 PF=0.95
New Load.LOAD156 Phases=1 Bus1=2902.1 kV=0.23 kW=1 PF=0.95
